Info : only one transport option; autoselect 'jtag'
adapter speed: 1000 kHz
cc3200_dbginit
Info : device: 4 "2232C"
Info : deviceID: 72467242
Info : SerialNumber: cc3200A
Info : Description: USB <-> JTAG/SWD A
Info : clock speed 1000 kHz
Info : JTAG tap: cc3200.jrc tap/device found: 0x0b97c02f (mfg: 0x017, part: 0xb97c, ver: 0x0)
Info : JTAG tap: cc3200.dap enabled
Info : cc3200.cpu: hardware has 6 breakpoints, 4 watchpoints
Info : accepting 'gdb' connection from pipe
target state: halted
target halted due to debug-request, current mode: Thread 
xPSR: 0x41000000 pc: 0x00002310 msp: 0x20003fd0
Warn : acknowledgment received, but no packet pending
Error: FT_Write returned: io error
Error: couldn't write MPSSE commands to FT2232
Polling target cc3200.cpu failed, GDB will be halted. Polling again in 100ms
Warn : target not halted
Error: FT_Write returned: io error
Error: couldn't write MPSSE commands to FT2232
Error: FT_Write returned: io error
Error: couldn't write MPSSE commands to FT2232
Error: FT_Write returned: io error
Error: couldn't write MPSSE commands to FT2232
Warn : Block read error address 0x20013b40
Error: FT_Write returned: io error
Error: couldn't write MPSSE commands to FT2232
Polling target cc3200.cpu failed, GDB will be halted. Polling again in 300ms
Error: FT_Write returned: io error
Error: couldn't write MPSSE commands to FT2232
Polling target cc3200.cpu failed, GDB will be halted. Polling again in 700ms
Error: FT_Write returned: io error
Error: couldn't write MPSSE commands to FT2232
Polling target cc3200.cpu failed, GDB will be halted. Polling again in 1500ms
Error: FT_Write returned: io error
Error: couldn't write MPSSE commands to FT2232
Polling target cc3200.cpu failed, GDB will be halted. Polling again in 3100ms
Error: FT_Write returned: io error
Error: couldn't write MPSSE commands to FT2232
Polling target cc3200.cpu failed, GDB will be halted. Polling again in 6300ms
Error: FT_Write returned: io error
Error: couldn't write MPSSE commands to FT2232
Polling target cc3200.cpu failed, GDB will be halted. Polling again in 6300ms
Error: FT_Write returned: io error
Error: couldn't write MPSSE commands to FT2232
Polling target cc3200.cpu failed, GDB will be halted. Polling again in 6300ms
Error: FT_Write returned: io error
Error: couldn't write MPSSE commands to FT2232
Polling target cc3200.cpu failed, GDB will be halted. Polling again in 6300ms
Error: FT_Write returned: io error
Error: couldn't write MPSSE commands to FT2232
Polling target cc3200.cpu failed, GDB will be halted. Polling again in 6300ms
Error: FT_Write returned: io error
Error: couldn't write MPSSE commands to FT2232
Polling target cc3200.cpu failed, GDB will be halted. Polling again in 6300ms
Error: FT_Write returned: io error
Error: couldn't write MPSSE commands to FT2232
Polling target cc3200.cpu failed, GDB will be halted. Polling again in 6300ms
Error: FT_Write returned: io error
Error: couldn't write MPSSE commands to FT2232
Polling target cc3200.cpu failed, GDB will be halted. Polling again in 6300ms
Error: FT_Write returned: io error
Error: couldn't write MPSSE commands to FT2232
Polling target cc3200.cpu failed, GDB will be halted. Polling again in 6300ms
Error: FT_Write returned: io error
Error: couldn't write MPSSE commands to FT2232
Polling target cc3200.cpu failed, GDB will be halted. Polling again in 6300ms
Error: FT_Write returned: io error
Error: couldn't write MPSSE commands to FT2232
Polling target cc3200.cpu failed, GDB will be halted. Polling again in 6300ms
Error: FT_Write returned: io error
Error: couldn't write MPSSE commands to FT2232
Polling target cc3200.cpu failed, GDB will be halted. Polling again in 6300ms
Error: FT_Write returned: io error
Error: couldn't write MPSSE commands to FT2232
Polling target cc3200.cpu failed, GDB will be halted. Polling again in 6300ms
Error: FT_Write returned: io error
Error: couldn't write MPSSE commands to FT2232
Polling target cc3200.cpu failed, GDB will be halted. Polling again in 6300ms
Error: FT_Write returned: io error
Error: couldn't write MPSSE commands to FT2232
Polling target cc3200.cpu failed, GDB will be halted. Polling again in 6300ms
Error: FT_Write returned: io error
Error: couldn't write MPSSE commands to FT2232
Polling target cc3200.cpu failed, GDB will be halted. Polling again in 6300ms
Error: FT_Write returned: io error
Error: couldn't write MPSSE commands to FT2232
Polling target cc3200.cpu failed, GDB will be halted. Polling again in 6300ms
Error: FT_Write returned: io error
Error: couldn't write MPSSE commands to FT2232
Polling target cc3200.cpu failed, GDB will be halted. Polling again in 6300ms
Error: FT_Write returned: io error
Error: couldn't write MPSSE commands to FT2232
Polling target cc3200.cpu failed, GDB will be halted. Polling again in 6300ms
Error: FT_Write returned: io error
Error: couldn't write MPSSE commands to FT2232
Polling target cc3200.cpu failed, GDB will be halted. Polling again in 6300ms
Error: FT_Write returned: io error
Error: couldn't write MPSSE commands to FT2232
Polling target cc3200.cpu failed, GDB will be halted. Polling again in 6300ms
Error: FT_Write returned: io error
Error: couldn't write MPSSE commands to FT2232
Polling target cc3200.cpu failed, GDB will be halted. Polling again in 6300ms
Error: FT_Write returned: io error
Error: couldn't write MPSSE commands to FT2232
Polling target cc3200.cpu failed, GDB will be halted. Polling again in 6300ms
Error: FT_Write returned: io error
Error: couldn't write MPSSE commands to FT2232
Polling target cc3200.cpu failed, GDB will be halted. Polling again in 6300ms
Error: FT_Write returned: io error
Error: couldn't write MPSSE commands to FT2232
Polling target cc3200.cpu failed, GDB will be halted. Polling again in 6300ms
Error: FT_Write returned: io error
Error: couldn't write MPSSE commands to FT2232
Polling target cc3200.cpu failed, GDB will be halted. Polling again in 6300ms
Error: FT_Write returned: io error
Error: couldn't write MPSSE commands to FT2232
Polling target cc3200.cpu failed, GDB will be halted. Polling again in 6300ms
Error: FT_Write returned: io error
Error: couldn't write MPSSE commands to FT2232
Polling target cc3200.cpu failed, GDB will be halted. Polling again in 6300ms
Error: FT_Write returned: io error
Error: couldn't write MPSSE commands to FT2232
Polling target cc3200.cpu failed, GDB will be halted. Polling again in 6300ms
Error: FT_Write returned: io error
Error: couldn't write MPSSE commands to FT2232
Polling target cc3200.cpu failed, GDB will be halted. Polling again in 6300ms
Error: FT_Write returned: io error
Error: couldn't write MPSSE commands to FT2232
Polling target cc3200.cpu failed, GDB will be halted. Polling again in 6300ms
Error: FT_Write returned: io error
Error: couldn't write MPSSE commands to FT2232
Polling target cc3200.cpu failed, GDB will be halted. Polling again in 6300ms
Warn : keep_alive() was not invoked in the 1000ms timelimit. GDB alive packet not sent! (41772323). Workaround: increase "set remotetimeout" in GDB
Error: FT_Write returned: io error
Error: couldn't write MPSSE commands to FT2232
Polling target cc3200.cpu failed, GDB will be halted. Polling again in 6300ms
Error: FT_Write returned: io error
Error: couldn't write MPSSE commands to FT2232
Polling target cc3200.cpu failed, GDB will be halted. Polling again in 6300ms
Error: FT_Write returned: io error
Error: couldn't write MPSSE commands to FT2232
Polling target cc3200.cpu failed, GDB will be halted. Polling again in 6300ms
Error: FT_Write returned: io error
Error: couldn't write MPSSE commands to FT2232
Polling target cc3200.cpu failed, GDB will be halted. Polling again in 6300ms
Error: FT_Write returned: io error
Error: couldn't write MPSSE commands to FT2232
Polling target cc3200.cpu failed, GDB will be halted. Polling again in 6300ms
Error: FT_Write returned: io error
Error: couldn't write MPSSE commands to FT2232
Polling target cc3200.cpu failed, GDB will be halted. Polling again in 6300ms
Error: FT_Write returned: io error
Error: couldn't write MPSSE commands to FT2232
Polling target cc3200.cpu failed, GDB will be halted. Polling again in 6300ms
Error: FT_Write returned: io error
Error: couldn't write MPSSE commands to FT2232
Polling target cc3200.cpu failed, GDB will be halted. Polling again in 6300ms
Error: FT_Write returned: io error
Error: couldn't write MPSSE commands to FT2232
Polling target cc3200.cpu failed, GDB will be halted. Polling again in 6300ms
Error: FT_Write returned: io error
Error: couldn't write MPSSE commands to FT2232
Polling target cc3200.cpu failed, GDB will be halted. Polling again in 6300ms
Error: FT_Write returned: io error
Error: couldn't write MPSSE commands to FT2232
Polling target cc3200.cpu failed, GDB will be halted. Polling again in 6300ms
Error: FT_Write returned: io error
Error: couldn't write MPSSE commands to FT2232
Polling target cc3200.cpu failed, GDB will be halted. Polling again in 6300ms
Error: FT_Write returned: io error
Error: couldn't write MPSSE commands to FT2232
Polling target cc3200.cpu failed, GDB will be halted. Polling again in 6300ms
Error: FT_Write returned: io error
Error: couldn't write MPSSE commands to FT2232
Polling target cc3200.cpu failed, GDB will be halted. Polling again in 6300ms
Error: FT_Write returned: io error
Error: couldn't write MPSSE commands to FT2232
Polling target cc3200.cpu failed, GDB will be halted. Polling again in 6300ms
Error: FT_Write returned: io error
Error: couldn't write MPSSE commands to FT2232
Polling target cc3200.cpu failed, GDB will be halted. Polling again in 6300ms
Error: FT_Write returned: io error
Error: couldn't write MPSSE commands to FT2232
Polling target cc3200.cpu failed, GDB will be halted. Polling again in 6300ms
Error: FT_Write returned: io error
Error: couldn't write MPSSE commands to FT2232
Polling target cc3200.cpu failed, GDB will be halted. Polling again in 6300ms
Error: FT_Write returned: io error
Error: couldn't write MPSSE commands to FT2232
Polling target cc3200.cpu failed, GDB will be halted. Polling again in 6300ms
Error: FT_Write returned: io error
Error: couldn't write MPSSE commands to FT2232
Polling target cc3200.cpu failed, GDB will be halted. Polling again in 6300ms
Error: FT_Write returned: io error
Error: couldn't write MPSSE commands to FT2232
Polling target cc3200.cpu failed, GDB will be halted. Polling again in 6300ms
Error: FT_Write returned: io error
Error: couldn't write MPSSE commands to FT2232
Polling target cc3200.cpu failed, GDB will be halted. Polling again in 6300ms
Error: FT_Write returned: io error
Error: couldn't write MPSSE commands to FT2232
Polling target cc3200.cpu failed, GDB will be halted. Polling again in 6300ms
Error: FT_Write returned: io error
Error: couldn't write MPSSE commands to FT2232
Polling target cc3200.cpu failed, GDB will be halted. Polling again in 6300ms
Error: FT_Write returned: io error
Error: couldn't write MPSSE commands to FT2232
Polling target cc3200.cpu failed, GDB will be halted. Polling again in 6300ms
Error: FT_Write returned: io error
Error: couldn't write MPSSE commands to FT2232
Polling target cc3200.cpu failed, GDB will be halted. Polling again in 6300ms
Error: FT_Write returned: io error
Error: couldn't write MPSSE commands to FT2232
Polling target cc3200.cpu failed, GDB will be halted. Polling again in 6300ms
Error: FT_Write returned: io error
Error: couldn't write MPSSE commands to FT2232
Polling target cc3200.cpu failed, GDB will be halted. Polling again in 6300ms
Error: FT_Write returned: io error
Error: couldn't write MPSSE commands to FT2232
Polling target cc3200.cpu failed, GDB will be halted. Polling again in 6300ms
Error: FT_Write returned: io error
Error: couldn't write MPSSE commands to FT2232
Polling target cc3200.cpu failed, GDB will be halted. Polling again in 6300ms
Error: FT_Write returned: io error
Error: couldn't write MPSSE commands to FT2232
Polling target cc3200.cpu failed, GDB will be halted. Polling again in 6300ms
Error: FT_Write returned: io error
Error: couldn't write MPSSE commands to FT2232
Polling target cc3200.cpu failed, GDB will be halted. Polling again in 6300ms
Error: FT_Write returned: io error
Error: couldn't write MPSSE commands to FT2232
Polling target cc3200.cpu failed, GDB will be halted. Polling again in 6300ms
Error: FT_Write returned: io error
Error: couldn't write MPSSE commands to FT2232
Polling target cc3200.cpu failed, GDB will be halted. Polling again in 6300ms
Error: FT_Write returned: io error
Error: couldn't write MPSSE commands to FT2232
Polling target cc3200.cpu failed, GDB will be halted. Polling again in 6300ms
Error: FT_Write returned: io error
Error: couldn't write MPSSE commands to FT2232
Polling target cc3200.cpu failed, GDB will be halted. Polling again in 6300ms
Error: FT_Write returned: io error
Error: couldn't write MPSSE commands to FT2232
Polling target cc3200.cpu failed, GDB will be halted. Polling again in 6300ms
Error: FT_Write returned: io error
Error: couldn't write MPSSE commands to FT2232
Polling target cc3200.cpu failed, GDB will be halted. Polling again in 6300ms
Error: FT_Write returned: io error
Error: couldn't write MPSSE commands to FT2232
Polling target cc3200.cpu failed, GDB will be halted. Polling again in 6300ms
Error: FT_Write returned: io error
Error: couldn't write MPSSE commands to FT2232
Polling target cc3200.cpu failed, GDB will be halted. Polling again in 6300ms
Error: FT_Write returned: io error
Error: couldn't write MPSSE commands to FT2232
Polling target cc3200.cpu failed, GDB will be halted. Polling again in 6300ms
Error: FT_Write returned: io error
Error: couldn't write MPSSE commands to FT2232
Polling target cc3200.cpu failed, GDB will be halted. Polling again in 6300ms
Error: FT_Write returned: io error
Error: couldn't write MPSSE commands to FT2232
Polling target cc3200.cpu failed, GDB will be halted. Polling again in 6300ms
Error: FT_Write returned: io error
Error: couldn't write MPSSE commands to FT2232
Polling target cc3200.cpu failed, GDB will be halted. Polling again in 6300ms
Error: FT_Write returned: io error
Error: couldn't write MPSSE commands to FT2232
Polling target cc3200.cpu failed, GDB will be halted. Polling again in 6300ms
Error: FT_Write returned: io error
Error: couldn't write MPSSE commands to FT2232
Polling target cc3200.cpu failed, GDB will be halted. Polling again in 6300ms
Error: FT_Write returned: io error
Error: couldn't write MPSSE commands to FT2232
Polling target cc3200.cpu failed, GDB will be halted. Polling again in 6300ms
Error: FT_Write returned: io error
Error: couldn't write MPSSE commands to FT2232
Polling target cc3200.cpu failed, GDB will be halted. Polling again in 6300ms
Error: FT_Write returned: io error
Error: couldn't write MPSSE commands to FT2232
Polling target cc3200.cpu failed, GDB will be halted. Polling again in 6300ms
Error: FT_Write returned: io error
Error: couldn't write MPSSE commands to FT2232
Polling target cc3200.cpu failed, GDB will be halted. Polling again in 6300ms
Error: FT_Write returned: io error
Error: couldn't write MPSSE commands to FT2232
Polling target cc3200.cpu failed, GDB will be halted. Polling again in 6300ms
Error: FT_Write returned: io error
Error: couldn't write MPSSE commands to FT2232
Polling target cc3200.cpu failed, GDB will be halted. Polling again in 6300ms
Error: FT_Write returned: io error
Error: couldn't write MPSSE commands to FT2232
Polling target cc3200.cpu failed, GDB will be halted. Polling again in 6300ms
Error: FT_Write returned: io error
Error: couldn't write MPSSE commands to FT2232
Polling target cc3200.cpu failed, GDB will be halted. Polling again in 6300ms
Error: FT_Write returned: io error
Error: couldn't write MPSSE commands to FT2232
Polling target cc3200.cpu failed, GDB will be halted. Polling again in 6300ms
Error: FT_Write returned: io error
Error: couldn't write MPSSE commands to FT2232
Polling target cc3200.cpu failed, GDB will be halted. Polling again in 6300ms
Error: FT_Write returned: io error
Error: couldn't write MPSSE commands to FT2232
Polling target cc3200.cpu failed, GDB will be halted. Polling again in 6300ms
Error: FT_Write returned: io error
Error: couldn't write MPSSE commands to FT2232
Polling target cc3200.cpu failed, GDB will be halted. Polling again in 6300ms
Error: FT_Write returned: io error
Error: couldn't write MPSSE commands to FT2232
Polling target cc3200.cpu failed, GDB will be halted. Polling again in 6300ms
Error: FT_Write returned: io error
Error: couldn't write MPSSE commands to FT2232
Polling target cc3200.cpu failed, GDB will be halted. Polling again in 6300ms
Error: FT_Write returned: io error
Error: couldn't write MPSSE commands to FT2232
Polling target cc3200.cpu failed, GDB will be halted. Polling again in 6300ms
Error: FT_Write returned: io error
Error: couldn't write MPSSE commands to FT2232
Polling target cc3200.cpu failed, GDB will be halted. Polling again in 6300ms
Error: FT_Write returned: io error
Error: couldn't write MPSSE commands to FT2232
Polling target cc3200.cpu failed, GDB will be halted. Polling again in 6300ms
Error: FT_Write returned: io error
Error: couldn't write MPSSE commands to FT2232
Polling target cc3200.cpu failed, GDB will be halted. Polling again in 6300ms
Error: FT_Write returned: io error
Error: couldn't write MPSSE commands to FT2232
Polling target cc3200.cpu failed, GDB will be halted. Polling again in 6300ms
Error: FT_Write returned: io error
Error: couldn't write MPSSE commands to FT2232
Polling target cc3200.cpu failed, GDB will be halted. Polling again in 6300ms
Error: FT_Write returned: io error
Error: couldn't write MPSSE commands to FT2232
Polling target cc3200.cpu failed, GDB will be halted. Polling again in 6300ms
Error: FT_Write returned: io error
Error: couldn't write MPSSE commands to FT2232
Polling target cc3200.cpu failed, GDB will be halted. Polling again in 6300ms
Error: FT_Write returned: io error
Error: couldn't write MPSSE commands to FT2232
Polling target cc3200.cpu failed, GDB will be halted. Polling again in 6300ms
Error: FT_Write returned: io error
Error: couldn't write MPSSE commands to FT2232
Polling target cc3200.cpu failed, GDB will be halted. Polling again in 6300ms
Error: FT_Write returned: io error
Error: couldn't write MPSSE commands to FT2232
Polling target cc3200.cpu failed, GDB will be halted. Polling again in 6300ms
Error: FT_Write returned: io error
Error: couldn't write MPSSE commands to FT2232
Polling target cc3200.cpu failed, GDB will be halted. Polling again in 6300ms
Error: FT_Write returned: io error
Error: couldn't write MPSSE commands to FT2232
Polling target cc3200.cpu failed, GDB will be halted. Polling again in 6300ms
Error: FT_Write returned: io error
Error: couldn't write MPSSE commands to FT2232
Polling target cc3200.cpu failed, GDB will be halted. Polling again in 6300ms
Error: FT_Write returned: io error
Error: couldn't write MPSSE commands to FT2232
Polling target cc3200.cpu failed, GDB will be halted. Polling again in 6300ms
Error: FT_Write returned: io error
Error: couldn't write MPSSE commands to FT2232
Polling target cc3200.cpu failed, GDB will be halted. Polling again in 6300ms
Error: FT_Write returned: io error
Error: couldn't write MPSSE commands to FT2232
Polling target cc3200.cpu failed, GDB will be halted. Polling again in 6300ms
Error: FT_Write returned: io error
Error: couldn't write MPSSE commands to FT2232
Polling target cc3200.cpu failed, GDB will be halted. Polling again in 6300ms
Error: FT_Write returned: io error
Error: couldn't write MPSSE commands to FT2232
Polling target cc3200.cpu failed, GDB will be halted. Polling again in 6300ms
Error: FT_Write returned: io error
Error: couldn't write MPSSE commands to FT2232
Polling target cc3200.cpu failed, GDB will be halted. Polling again in 6300ms
Error: FT_Write returned: io error
Error: couldn't write MPSSE commands to FT2232
Polling target cc3200.cpu failed, GDB will be halted. Polling again in 6300ms
Error: FT_Write returned: io error
Error: couldn't write MPSSE commands to FT2232
Polling target cc3200.cpu failed, GDB will be halted. Polling again in 6300ms
Error: FT_Write returned: io error
Error: couldn't write MPSSE commands to FT2232
Polling target cc3200.cpu failed, GDB will be halted. Polling again in 6300ms
Error: FT_Write returned: io error
Error: couldn't write MPSSE commands to FT2232
Polling target cc3200.cpu failed, GDB will be halted. Polling again in 6300ms
Error: FT_Write returned: io error
Error: couldn't write MPSSE commands to FT2232
Polling target cc3200.cpu failed, GDB will be halted. Polling again in 6300ms
Error: FT_Write returned: io error
Error: couldn't write MPSSE commands to FT2232
Polling target cc3200.cpu failed, GDB will be halted. Polling again in 6300ms
Error: FT_Write returned: io error
Error: couldn't write MPSSE commands to FT2232
Polling target cc3200.cpu failed, GDB will be halted. Polling again in 6300ms
Error: FT_Write returned: io error
Error: couldn't write MPSSE commands to FT2232
Polling target cc3200.cpu failed, GDB will be halted. Polling again in 6300ms
Error: FT_Write returned: io error
Error: couldn't write MPSSE commands to FT2232
Polling target cc3200.cpu failed, GDB will be halted. Polling again in 6300ms
Error: FT_Write returned: io error
Error: couldn't write MPSSE commands to FT2232
Polling target cc3200.cpu failed, GDB will be halted. Polling again in 6300ms
Error: FT_Write returned: io error
Error: couldn't write MPSSE commands to FT2232
Polling target cc3200.cpu failed, GDB will be halted. Polling again in 6300ms
Error: FT_Write returned: io error
Error: couldn't write MPSSE commands to FT2232
Polling target cc3200.cpu failed, GDB will be halted. Polling again in 6300ms
Error: FT_Write returned: io error
Error: couldn't write MPSSE commands to FT2232
Polling target cc3200.cpu failed, GDB will be halted. Polling again in 6300ms
Error: FT_Write returned: io error
Error: couldn't write MPSSE commands to FT2232
Polling target cc3200.cpu failed, GDB will be halted. Polling again in 6300ms
Error: FT_Write returned: io error
Error: couldn't write MPSSE commands to FT2232
Polling target cc3200.cpu failed, GDB will be halted. Polling again in 6300ms
Error: FT_Write returned: io error
Error: couldn't write MPSSE commands to FT2232
Polling target cc3200.cpu failed, GDB will be halted. Polling again in 6300ms
Error: FT_Write returned: io error
Error: couldn't write MPSSE commands to FT2232
Polling target cc3200.cpu failed, GDB will be halted. Polling again in 6300ms
Error: FT_Write returned: io error
Error: couldn't write MPSSE commands to FT2232
Polling target cc3200.cpu failed, GDB will be halted. Polling again in 6300ms
Error: FT_Write returned: io error
Error: couldn't write MPSSE commands to FT2232
Polling target cc3200.cpu failed, GDB will be halted. Polling again in 6300ms
Error: FT_Write returned: io error
Error: couldn't write MPSSE commands to FT2232
Polling target cc3200.cpu failed, GDB will be halted. Polling again in 6300ms
Error: FT_Write returned: io error
Error: couldn't write MPSSE commands to FT2232
Polling target cc3200.cpu failed, GDB will be halted. Polling again in 6300ms
Error: FT_Write returned: io error
Error: couldn't write MPSSE commands to FT2232
Polling target cc3200.cpu failed, GDB will be halted. Polling again in 6300ms
Error: FT_Write returned: io error
Error: couldn't write MPSSE commands to FT2232
Polling target cc3200.cpu failed, GDB will be halted. Polling again in 6300ms
Error: FT_Write returned: io error
Error: couldn't write MPSSE commands to FT2232
Polling target cc3200.cpu failed, GDB will be halted. Polling again in 6300ms
Error: FT_Write returned: io error
Error: couldn't write MPSSE commands to FT2232
Polling target cc3200.cpu failed, GDB will be halted. Polling again in 6300ms
Error: FT_Write returned: io error
Error: couldn't write MPSSE commands to FT2232
Polling target cc3200.cpu failed, GDB will be halted. Polling again in 6300ms
Error: FT_Write returned: io error
Error: couldn't write MPSSE commands to FT2232
Polling target cc3200.cpu failed, GDB will be halted. Polling again in 6300ms
Error: FT_Write returned: io error
Error: couldn't write MPSSE commands to FT2232
Polling target cc3200.cpu failed, GDB will be halted. Polling again in 6300ms
Error: FT_Write returned: io error
Error: couldn't write MPSSE commands to FT2232
Polling target cc3200.cpu failed, GDB will be halted. Polling again in 6300ms
Error: FT_Write returned: io error
Error: couldn't write MPSSE commands to FT2232
Polling target cc3200.cpu failed, GDB will be halted. Polling again in 6300ms
Error: FT_Write returned: io error
Error: couldn't write MPSSE commands to FT2232
Polling target cc3200.cpu failed, GDB will be halted. Polling again in 6300ms
Error: FT_Write returned: io error
Error: couldn't write MPSSE commands to FT2232
Polling target cc3200.cpu failed, GDB will be halted. Polling again in 6300ms
Error: FT_Write returned: io error
Error: couldn't write MPSSE commands to FT2232
Polling target cc3200.cpu failed, GDB will be halted. Polling again in 6300ms
Error: FT_Write returned: io error
Error: couldn't write MPSSE commands to FT2232
Polling target cc3200.cpu failed, GDB will be halted. Polling again in 6300ms
Error: FT_Write returned: io error
Error: couldn't write MPSSE commands to FT2232
Polling target cc3200.cpu failed, GDB will be halted. Polling again in 6300ms
Error: FT_Write returned: io error
Error: couldn't write MPSSE commands to FT2232
Polling target cc3200.cpu failed, GDB will be halted. Polling again in 6300ms
Error: FT_Write returned: io error
Error: couldn't write MPSSE commands to FT2232
Polling target cc3200.cpu failed, GDB will be halted. Polling again in 6300ms
Error: FT_Write returned: io error
Error: couldn't write MPSSE commands to FT2232
Polling target cc3200.cpu failed, GDB will be halted. Polling again in 6300ms
Error: FT_Write returned: io error
Error: couldn't write MPSSE commands to FT2232
Polling target cc3200.cpu failed, GDB will be halted. Polling again in 6300ms
Error: FT_Write returned: io error
Error: couldn't write MPSSE commands to FT2232
Polling target cc3200.cpu failed, GDB will be halted. Polling again in 6300ms
Error: FT_Write returned: io error
Error: couldn't write MPSSE commands to FT2232
Polling target cc3200.cpu failed, GDB will be halted. Polling again in 6300ms
Error: FT_Write returned: io error
Error: couldn't write MPSSE commands to FT2232
Polling target cc3200.cpu failed, GDB will be halted. Polling again in 6300ms
Error: FT_Write returned: io error
Error: couldn't write MPSSE commands to FT2232
Polling target cc3200.cpu failed, GDB will be halted. Polling again in 6300ms
Error: FT_Write returned: io error
Error: couldn't write MPSSE commands to FT2232
Polling target cc3200.cpu failed, GDB will be halted. Polling again in 6300ms
Error: FT_Write returned: io error
Error: couldn't write MPSSE commands to FT2232
Polling target cc3200.cpu failed, GDB will be halted. Polling again in 6300ms
Error: FT_Write returned: io error
Error: couldn't write MPSSE commands to FT2232
Polling target cc3200.cpu failed, GDB will be halted. Polling again in 6300ms
Error: FT_Write returned: io error
Error: couldn't write MPSSE commands to FT2232
Polling target cc3200.cpu failed, GDB will be halted. Polling again in 6300ms
Error: FT_Write returned: io error
Error: couldn't write MPSSE commands to FT2232
Polling target cc3200.cpu failed, GDB will be halted. Polling again in 6300ms
Error: FT_Write returned: io error
Error: couldn't write MPSSE commands to FT2232
Polling target cc3200.cpu failed, GDB will be halted. Polling again in 6300ms
Error: FT_Write returned: io error
Error: couldn't write MPSSE commands to FT2232
Polling target cc3200.cpu failed, GDB will be halted. Polling again in 6300ms
Error: FT_Write returned: io error
Error: couldn't write MPSSE commands to FT2232
Polling target cc3200.cpu failed, GDB will be halted. Polling again in 6300ms
Error: FT_Write returned: io error
Error: couldn't write MPSSE commands to FT2232
Polling target cc3200.cpu failed, GDB will be halted. Polling again in 6300ms
Error: FT_Write returned: io error
Error: couldn't write MPSSE commands to FT2232
Polling target cc3200.cpu failed, GDB will be halted. Polling again in 6300ms
Error: FT_Write returned: io error
Error: couldn't write MPSSE commands to FT2232
Polling target cc3200.cpu failed, GDB will be halted. Polling again in 6300ms
Error: FT_Write returned: io error
Error: couldn't write MPSSE commands to FT2232
Polling target cc3200.cpu failed, GDB will be halted. Polling again in 6300ms
Error: FT_Write returned: io error
Error: couldn't write MPSSE commands to FT2232
Polling target cc3200.cpu failed, GDB will be halted. Polling again in 6300ms
Error: FT_Write returned: io error
Error: couldn't write MPSSE commands to FT2232
Polling target cc3200.cpu failed, GDB will be halted. Polling again in 6300ms
Error: FT_Write returned: io error
Error: couldn't write MPSSE commands to FT2232
Polling target cc3200.cpu failed, GDB will be halted. Polling again in 6300ms
Error: FT_Write returned: io error
Error: couldn't write MPSSE commands to FT2232
Polling target cc3200.cpu failed, GDB will be halted. Polling again in 6300ms
Error: FT_Write returned: io error
Error: couldn't write MPSSE commands to FT2232
Polling target cc3200.cpu failed, GDB will be halted. Polling again in 6300ms
Error: FT_Write returned: io error
Error: couldn't write MPSSE commands to FT2232
Polling target cc3200.cpu failed, GDB will be halted. Polling again in 6300ms
Error: FT_Write returned: io error
Error: couldn't write MPSSE commands to FT2232
Polling target cc3200.cpu failed, GDB will be halted. Polling again in 6300ms
Error: FT_Write returned: io error
Error: couldn't write MPSSE commands to FT2232
Polling target cc3200.cpu failed, GDB will be halted. Polling again in 6300ms
Error: FT_Write returned: io error
Error: couldn't write MPSSE commands to FT2232
Polling target cc3200.cpu failed, GDB will be halted. Polling again in 6300ms
Error: FT_Write returned: io error
Error: couldn't write MPSSE commands to FT2232
Polling target cc3200.cpu failed, GDB will be halted. Polling again in 6300ms
Error: FT_Write returned: io error
Error: couldn't write MPSSE commands to FT2232
Polling target cc3200.cpu failed, GDB will be halted. Polling again in 6300ms
Error: FT_Write returned: io error
Error: couldn't write MPSSE commands to FT2232
Polling target cc3200.cpu failed, GDB will be halted. Polling again in 6300ms
Error: FT_Write returned: io error
Error: couldn't write MPSSE commands to FT2232
Polling target cc3200.cpu failed, GDB will be halted. Polling again in 6300ms
Error: FT_Write returned: io error
Error: couldn't write MPSSE commands to FT2232
Polling target cc3200.cpu failed, GDB will be halted. Polling again in 6300ms
Error: FT_Write returned: io error
Error: couldn't write MPSSE commands to FT2232
Polling target cc3200.cpu failed, GDB will be halted. Polling again in 6300ms
Error: FT_Write returned: io error
Error: couldn't write MPSSE commands to FT2232
Polling target cc3200.cpu failed, GDB will be halted. Polling again in 6300ms
Error: FT_Write returned: io error
Error: couldn't write MPSSE commands to FT2232
Polling target cc3200.cpu failed, GDB will be halted. Polling again in 6300ms
Error: FT_Write returned: io error
Error: couldn't write MPSSE commands to FT2232
Polling target cc3200.cpu failed, GDB will be halted. Polling again in 6300ms
Error: FT_Write returned: io error
Error: couldn't write MPSSE commands to FT2232
Polling target cc3200.cpu failed, GDB will be halted. Polling again in 6300ms
Error: FT_Write returned: io error
Error: couldn't write MPSSE commands to FT2232
Polling target cc3200.cpu failed, GDB will be halted. Polling again in 6300ms
Error: FT_Write returned: io error
Error: couldn't write MPSSE commands to FT2232
Polling target cc3200.cpu failed, GDB will be halted. Polling again in 6300ms
Error: FT_Write returned: io error
Error: couldn't write MPSSE commands to FT2232
Polling target cc3200.cpu failed, GDB will be halted. Polling again in 6300ms
Error: FT_Write returned: io error
Error: couldn't write MPSSE commands to FT2232
Polling target cc3200.cpu failed, GDB will be halted. Polling again in 6300ms
Error: FT_Write returned: io error
Error: couldn't write MPSSE commands to FT2232
Polling target cc3200.cpu failed, GDB will be halted. Polling again in 6300ms
Error: FT_Write returned: io error
Error: couldn't write MPSSE commands to FT2232
Polling target cc3200.cpu failed, GDB will be halted. Polling again in 6300ms
Error: FT_Write returned: io error
Error: couldn't write MPSSE commands to FT2232
Polling target cc3200.cpu failed, GDB will be halted. Polling again in 6300ms
Error: FT_Write returned: io error
Error: couldn't write MPSSE commands to FT2232
Polling target cc3200.cpu failed, GDB will be halted. Polling again in 6300ms
Error: FT_Write returned: io error
Error: couldn't write MPSSE commands to FT2232
Polling target cc3200.cpu failed, GDB will be halted. Polling again in 6300ms
Error: FT_Write returned: io error
Error: couldn't write MPSSE commands to FT2232
Polling target cc3200.cpu failed, GDB will be halted. Polling again in 6300ms
Error: FT_Write returned: io error
Error: couldn't write MPSSE commands to FT2232
Polling target cc3200.cpu failed, GDB will be halted. Polling again in 6300ms
Error: FT_Write returned: io error
Error: couldn't write MPSSE commands to FT2232
Polling target cc3200.cpu failed, GDB will be halted. Polling again in 6300ms
Error: FT_Write returned: io error
Error: couldn't write MPSSE commands to FT2232
Polling target cc3200.cpu failed, GDB will be halted. Polling again in 6300ms
Error: FT_Write returned: io error
Error: couldn't write MPSSE commands to FT2232
Polling target cc3200.cpu failed, GDB will be halted. Polling again in 6300ms
Error: FT_Write returned: io error
Error: couldn't write MPSSE commands to FT2232
Polling target cc3200.cpu failed, GDB will be halted. Polling again in 6300ms
Error: FT_Write returned: io error
Error: couldn't write MPSSE commands to FT2232
Polling target cc3200.cpu failed, GDB will be halted. Polling again in 6300ms
Error: FT_Write returned: io error
Error: couldn't write MPSSE commands to FT2232
Polling target cc3200.cpu failed, GDB will be halted. Polling again in 6300ms
Error: FT_Write returned: io error
Error: couldn't write MPSSE commands to FT2232
Polling target cc3200.cpu failed, GDB will be halted. Polling again in 6300ms
Error: FT_Write returned: io error
Error: couldn't write MPSSE commands to FT2232
Polling target cc3200.cpu failed, GDB will be halted. Polling again in 6300ms
Error: FT_Write returned: io error
Error: couldn't write MPSSE commands to FT2232
Polling target cc3200.cpu failed, GDB will be halted. Polling again in 6300ms
Error: FT_Write returned: io error
Error: couldn't write MPSSE commands to FT2232
Polling target cc3200.cpu failed, GDB will be halted. Polling again in 6300ms
Error: FT_Write returned: io error
Error: couldn't write MPSSE commands to FT2232
Polling target cc3200.cpu failed, GDB will be halted. Polling again in 6300ms
Error: FT_Write returned: io error
Error: couldn't write MPSSE commands to FT2232
Polling target cc3200.cpu failed, GDB will be halted. Polling again in 6300ms
Error: FT_Write returned: io error
Error: couldn't write MPSSE commands to FT2232
Polling target cc3200.cpu failed, GDB will be halted. Polling again in 6300ms
Error: FT_Write returned: io error
Error: couldn't write MPSSE commands to FT2232
Polling target cc3200.cpu failed, GDB will be halted. Polling again in 6300ms
Error: FT_Write returned: io error
Error: couldn't write MPSSE commands to FT2232
Polling target cc3200.cpu failed, GDB will be halted. Polling again in 6300ms
Error: FT_Write returned: io error
Error: couldn't write MPSSE commands to FT2232
Polling target cc3200.cpu failed, GDB will be halted. Polling again in 6300ms
Error: FT_Write returned: io error
Error: couldn't write MPSSE commands to FT2232
Polling target cc3200.cpu failed, GDB will be halted. Polling again in 6300ms
Error: FT_Write returned: io error
Error: couldn't write MPSSE commands to FT2232
Polling target cc3200.cpu failed, GDB will be halted. Polling again in 6300ms
Error: FT_Write returned: io error
Error: couldn't write MPSSE commands to FT2232
Polling target cc3200.cpu failed, GDB will be halted. Polling again in 6300ms
Error: FT_Write returned: io error
Error: couldn't write MPSSE commands to FT2232
Polling target cc3200.cpu failed, GDB will be halted. Polling again in 6300ms
Error: FT_Write returned: io error
Error: couldn't write MPSSE commands to FT2232
Polling target cc3200.cpu failed, GDB will be halted. Polling again in 6300ms
Error: FT_Write returned: io error
Error: couldn't write MPSSE commands to FT2232
Polling target cc3200.cpu failed, GDB will be halted. Polling again in 6300ms
Error: FT_Write returned: io error
Error: couldn't write MPSSE commands to FT2232
Polling target cc3200.cpu failed, GDB will be halted. Polling again in 6300ms
Error: FT_Write returned: io error
Error: couldn't write MPSSE commands to FT2232
Polling target cc3200.cpu failed, GDB will be halted. Polling again in 6300ms
Error: FT_Write returned: io error
Error: couldn't write MPSSE commands to FT2232
Polling target cc3200.cpu failed, GDB will be halted. Polling again in 6300ms
Error: FT_Write returned: io error
Error: couldn't write MPSSE commands to FT2232
Polling target cc3200.cpu failed, GDB will be halted. Polling again in 6300ms
Error: FT_Write returned: io error
Error: couldn't write MPSSE commands to FT2232
Polling target cc3200.cpu failed, GDB will be halted. Polling again in 6300ms
Error: FT_Write returned: io error
Error: couldn't write MPSSE commands to FT2232
Polling target cc3200.cpu failed, GDB will be halted. Polling again in 6300ms
Error: FT_Write returned: io error
Error: couldn't write MPSSE commands to FT2232
Polling target cc3200.cpu failed, GDB will be halted. Polling again in 6300ms
Error: FT_Write returned: io error
Error: couldn't write MPSSE commands to FT2232
Polling target cc3200.cpu failed, GDB will be halted. Polling again in 6300ms
Error: FT_Write returned: io error
Error: couldn't write MPSSE commands to FT2232
Polling target cc3200.cpu failed, GDB will be halted. Polling again in 6300ms
Error: FT_Write returned: io error
Error: couldn't write MPSSE commands to FT2232
Polling target cc3200.cpu failed, GDB will be halted. Polling again in 6300ms
Error: FT_Write returned: io error
Error: couldn't write MPSSE commands to FT2232
Polling target cc3200.cpu failed, GDB will be halted. Polling again in 6300ms
Error: FT_Write returned: io error
Error: couldn't write MPSSE commands to FT2232
Polling target cc3200.cpu failed, GDB will be halted. Polling again in 6300ms
Error: FT_Write returned: io error
Error: couldn't write MPSSE commands to FT2232
Polling target cc3200.cpu failed, GDB will be halted. Polling again in 6300ms
Error: FT_Write returned: io error
Error: couldn't write MPSSE commands to FT2232
Polling target cc3200.cpu failed, GDB will be halted. Polling again in 6300ms
Error: FT_Write returned: io error
Error: couldn't write MPSSE commands to FT2232
Polling target cc3200.cpu failed, GDB will be halted. Polling again in 6300ms
Error: FT_Write returned: io error
Error: couldn't write MPSSE commands to FT2232
Polling target cc3200.cpu failed, GDB will be halted. Polling again in 6300ms
Error: FT_Write returned: io error
Error: couldn't write MPSSE commands to FT2232
Polling target cc3200.cpu failed, GDB will be halted. Polling again in 6300ms
Error: FT_Write returned: io error
Error: couldn't write MPSSE commands to FT2232
Polling target cc3200.cpu failed, GDB will be halted. Polling again in 6300ms
Error: FT_Write returned: io error
Error: couldn't write MPSSE commands to FT2232
Polling target cc3200.cpu failed, GDB will be halted. Polling again in 6300ms
Error: FT_Write returned: io error
Error: couldn't write MPSSE commands to FT2232
Polling target cc3200.cpu failed, GDB will be halted. Polling again in 6300ms
Error: FT_Write returned: io error
Error: couldn't write MPSSE commands to FT2232
Polling target cc3200.cpu failed, GDB will be halted. Polling again in 6300ms
Error: FT_Write returned: io error
Error: couldn't write MPSSE commands to FT2232
Polling target cc3200.cpu failed, GDB will be halted. Polling again in 6300ms
Error: FT_Write returned: io error
Error: couldn't write MPSSE commands to FT2232
Polling target cc3200.cpu failed, GDB will be halted. Polling again in 6300ms
Error: FT_Write returned: io error
Error: couldn't write MPSSE commands to FT2232
Polling target cc3200.cpu failed, GDB will be halted. Polling again in 6300ms
Error: FT_Write returned: io error
Error: couldn't write MPSSE commands to FT2232
Polling target cc3200.cpu failed, GDB will be halted. Polling again in 6300ms
Error: FT_Write returned: io error
Error: couldn't write MPSSE commands to FT2232
Polling target cc3200.cpu failed, GDB will be halted. Polling again in 6300ms
Error: FT_Write returned: io error
Error: couldn't write MPSSE commands to FT2232
Polling target cc3200.cpu failed, GDB will be halted. Polling again in 6300ms
Error: FT_Write returned: io error
Error: couldn't write MPSSE commands to FT2232
Polling target cc3200.cpu failed, GDB will be halted. Polling again in 6300ms
Error: FT_Write returned: io error
Error: couldn't write MPSSE commands to FT2232
Polling target cc3200.cpu failed, GDB will be halted. Polling again in 6300ms
Error: FT_Write returned: io error
Error: couldn't write MPSSE commands to FT2232
Polling target cc3200.cpu failed, GDB will be halted. Polling again in 6300ms
Error: FT_Write returned: io error
Error: couldn't write MPSSE commands to FT2232
Polling target cc3200.cpu failed, GDB will be halted. Polling again in 6300ms
Error: FT_Write returned: io error
Error: couldn't write MPSSE commands to FT2232
Polling target cc3200.cpu failed, GDB will be halted. Polling again in 6300ms
Error: FT_Write returned: io error
Error: couldn't write MPSSE commands to FT2232
Polling target cc3200.cpu failed, GDB will be halted. Polling again in 6300ms
Error: FT_Write returned: io error
Error: couldn't write MPSSE commands to FT2232
Polling target cc3200.cpu failed, GDB will be halted. Polling again in 6300ms
Error: FT_Write returned: io error
Error: couldn't write MPSSE commands to FT2232
Polling target cc3200.cpu failed, GDB will be halted. Polling again in 6300ms
Error: FT_Write returned: io error
Error: couldn't write MPSSE commands to FT2232
Polling target cc3200.cpu failed, GDB will be halted. Polling again in 6300ms
Error: FT_Write returned: io error
Error: couldn't write MPSSE commands to FT2232
Polling target cc3200.cpu failed, GDB will be halted. Polling again in 6300ms
Error: FT_Write returned: io error
Error: couldn't write MPSSE commands to FT2232
Polling target cc3200.cpu failed, GDB will be halted. Polling again in 6300ms
Error: FT_Write returned: io error
Error: couldn't write MPSSE commands to FT2232
Polling target cc3200.cpu failed, GDB will be halted. Polling again in 6300ms
Error: FT_Write returned: io error
Error: couldn't write MPSSE commands to FT2232
Polling target cc3200.cpu failed, GDB will be halted. Polling again in 6300ms
Error: FT_Write returned: io error
Error: couldn't write MPSSE commands to FT2232
Polling target cc3200.cpu failed, GDB will be halted. Polling again in 6300ms
Error: FT_Write returned: io error
Error: couldn't write MPSSE commands to FT2232
Polling target cc3200.cpu failed, GDB will be halted. Polling again in 6300ms
Error: FT_Write returned: io error
Error: couldn't write MPSSE commands to FT2232
Polling target cc3200.cpu failed, GDB will be halted. Polling again in 6300ms
Error: FT_Write returned: io error
Error: couldn't write MPSSE commands to FT2232
Polling target cc3200.cpu failed, GDB will be halted. Polling again in 6300ms
Error: FT_Write returned: io error
Error: couldn't write MPSSE commands to FT2232
Polling target cc3200.cpu failed, GDB will be halted. Polling again in 6300ms
Error: FT_Write returned: io error
Error: couldn't write MPSSE commands to FT2232
Polling target cc3200.cpu failed, GDB will be halted. Polling again in 6300ms
Error: FT_Write returned: io error
Error: couldn't write MPSSE commands to FT2232
Polling target cc3200.cpu failed, GDB will be halted. Polling again in 6300ms
Error: FT_Write returned: io error
Error: couldn't write MPSSE commands to FT2232
Polling target cc3200.cpu failed, GDB will be halted. Polling again in 6300ms
Error: FT_Write returned: io error
Error: couldn't write MPSSE commands to FT2232
Polling target cc3200.cpu failed, GDB will be halted. Polling again in 6300ms
Error: FT_Write returned: io error
Error: couldn't write MPSSE commands to FT2232
Polling target cc3200.cpu failed, GDB will be halted. Polling again in 6300ms
Error: FT_Write returned: io error
Error: couldn't write MPSSE commands to FT2232
Polling target cc3200.cpu failed, GDB will be halted. Polling again in 6300ms
Error: FT_Write returned: io error
Error: couldn't write MPSSE commands to FT2232
Polling target cc3200.cpu failed, GDB will be halted. Polling again in 6300ms
Error: FT_Write returned: io error
Error: couldn't write MPSSE commands to FT2232
Polling target cc3200.cpu failed, GDB will be halted. Polling again in 6300ms
Error: FT_Write returned: io error
Error: couldn't write MPSSE commands to FT2232
Polling target cc3200.cpu failed, GDB will be halted. Polling again in 6300ms
Error: FT_Write returned: io error
Error: couldn't write MPSSE commands to FT2232
Polling target cc3200.cpu failed, GDB will be halted. Polling again in 6300ms
Error: FT_Write returned: io error
Error: couldn't write MPSSE commands to FT2232
Polling target cc3200.cpu failed, GDB will be halted. Polling again in 6300ms
Error: FT_Write returned: io error
Error: couldn't write MPSSE commands to FT2232
Polling target cc3200.cpu failed, GDB will be halted. Polling again in 6300ms
Error: FT_Write returned: io error
Error: couldn't write MPSSE commands to FT2232
Polling target cc3200.cpu failed, GDB will be halted. Polling again in 6300ms
Error: FT_Write returned: io error
Error: couldn't write MPSSE commands to FT2232
Polling target cc3200.cpu failed, GDB will be halted. Polling again in 6300ms
Error: FT_Write returned: io error
Error: couldn't write MPSSE commands to FT2232
Polling target cc3200.cpu failed, GDB will be halted. Polling again in 6300ms
Error: FT_Write returned: io error
Error: couldn't write MPSSE commands to FT2232
Polling target cc3200.cpu failed, GDB will be halted. Polling again in 6300ms
Error: FT_Write returned: io error
Error: couldn't write MPSSE commands to FT2232
Polling target cc3200.cpu failed, GDB will be halted. Polling again in 6300ms
Error: FT_Write returned: io error
Error: couldn't write MPSSE commands to FT2232
Polling target cc3200.cpu failed, GDB will be halted. Polling again in 6300ms
Error: FT_Write returned: io error
Error: couldn't write MPSSE commands to FT2232
Polling target cc3200.cpu failed, GDB will be halted. Polling again in 6300ms
Error: FT_Write returned: io error
Error: couldn't write MPSSE commands to FT2232
Polling target cc3200.cpu failed, GDB will be halted. Polling again in 6300ms
Error: FT_Write returned: io error
Error: couldn't write MPSSE commands to FT2232
Polling target cc3200.cpu failed, GDB will be halted. Polling again in 6300ms
Error: FT_Write returned: io error
Error: couldn't write MPSSE commands to FT2232
Polling target cc3200.cpu failed, GDB will be halted. Polling again in 6300ms
Error: FT_Write returned: io error
Error: couldn't write MPSSE commands to FT2232
Polling target cc3200.cpu failed, GDB will be halted. Polling again in 6300ms
Error: FT_Write returned: io error
Error: couldn't write MPSSE commands to FT2232
Polling target cc3200.cpu failed, GDB will be halted. Polling again in 6300ms
Error: FT_Write returned: io error
Error: couldn't write MPSSE commands to FT2232
Polling target cc3200.cpu failed, GDB will be halted. Polling again in 6300ms
Error: FT_Write returned: io error
Error: couldn't write MPSSE commands to FT2232
Polling target cc3200.cpu failed, GDB will be halted. Polling again in 6300ms
Error: FT_Write returned: io error
Error: couldn't write MPSSE commands to FT2232
Polling target cc3200.cpu failed, GDB will be halted. Polling again in 6300ms
Error: FT_Write returned: io error
Error: couldn't write MPSSE commands to FT2232
Polling target cc3200.cpu failed, GDB will be halted. Polling again in 6300ms
Error: FT_Write returned: io error
Error: couldn't write MPSSE commands to FT2232
Polling target cc3200.cpu failed, GDB will be halted. Polling again in 6300ms
Error: FT_Write returned: io error
Error: couldn't write MPSSE commands to FT2232
Polling target cc3200.cpu failed, GDB will be halted. Polling again in 6300ms
Error: FT_Write returned: io error
Error: couldn't write MPSSE commands to FT2232
Polling target cc3200.cpu failed, GDB will be halted. Polling again in 6300ms
Error: FT_Write returned: io error
Error: couldn't write MPSSE commands to FT2232
Polling target cc3200.cpu failed, GDB will be halted. Polling again in 6300ms
Error: FT_Write returned: io error
Error: couldn't write MPSSE commands to FT2232
Polling target cc3200.cpu failed, GDB will be halted. Polling again in 6300ms
Error: FT_Write returned: io error
Error: couldn't write MPSSE commands to FT2232
Polling target cc3200.cpu failed, GDB will be halted. Polling again in 6300ms
Error: FT_Write returned: io error
Error: couldn't write MPSSE commands to FT2232
Polling target cc3200.cpu failed, GDB will be halted. Polling again in 6300ms
Error: FT_Write returned: io error
Error: couldn't write MPSSE commands to FT2232
Polling target cc3200.cpu failed, GDB will be halted. Polling again in 6300ms
Error: FT_Write returned: io error
Error: couldn't write MPSSE commands to FT2232
Polling target cc3200.cpu failed, GDB will be halted. Polling again in 6300ms
Error: FT_Write returned: io error
Error: couldn't write MPSSE commands to FT2232
Polling target cc3200.cpu failed, GDB will be halted. Polling again in 6300ms
Error: FT_Write returned: io error
Error: couldn't write MPSSE commands to FT2232
Polling target cc3200.cpu failed, GDB will be halted. Polling again in 6300ms
Error: FT_Write returned: io error
Error: couldn't write MPSSE commands to FT2232
Polling target cc3200.cpu failed, GDB will be halted. Polling again in 6300ms
Error: FT_Write returned: io error
Error: couldn't write MPSSE commands to FT2232
Polling target cc3200.cpu failed, GDB will be halted. Polling again in 6300ms
Error: FT_Write returned: io error
Error: couldn't write MPSSE commands to FT2232
Polling target cc3200.cpu failed, GDB will be halted. Polling again in 6300ms
Error: FT_Write returned: io error
Error: couldn't write MPSSE commands to FT2232
Polling target cc3200.cpu failed, GDB will be halted. Polling again in 6300ms
Error: FT_Write returned: io error
Error: couldn't write MPSSE commands to FT2232
Polling target cc3200.cpu failed, GDB will be halted. Polling again in 6300ms
Error: FT_Write returned: io error
Error: couldn't write MPSSE commands to FT2232
Polling target cc3200.cpu failed, GDB will be halted. Polling again in 6300ms
Error: FT_Write returned: io error
Error: couldn't write MPSSE commands to FT2232
Polling target cc3200.cpu failed, GDB will be halted. Polling again in 6300ms
Error: FT_Write returned: io error
Error: couldn't write MPSSE commands to FT2232
Polling target cc3200.cpu failed, GDB will be halted. Polling again in 6300ms
Error: FT_Write returned: io error
Error: couldn't write MPSSE commands to FT2232
Polling target cc3200.cpu failed, GDB will be halted. Polling again in 6300ms
Error: FT_Write returned: io error
Error: couldn't write MPSSE commands to FT2232
Polling target cc3200.cpu failed, GDB will be halted. Polling again in 6300ms
Error: FT_Write returned: io error
Error: couldn't write MPSSE commands to FT2232
Polling target cc3200.cpu failed, GDB will be halted. Polling again in 6300ms
Error: FT_Write returned: io error
Error: couldn't write MPSSE commands to FT2232
Polling target cc3200.cpu failed, GDB will be halted. Polling again in 6300ms
Error: FT_Write returned: io error
Error: couldn't write MPSSE commands to FT2232
Polling target cc3200.cpu failed, GDB will be halted. Polling again in 6300ms
Error: FT_Write returned: io error
Error: couldn't write MPSSE commands to FT2232
Polling target cc3200.cpu failed, GDB will be halted. Polling again in 6300ms
Error: FT_Write returned: io error
Error: couldn't write MPSSE commands to FT2232
Polling target cc3200.cpu failed, GDB will be halted. Polling again in 6300ms
Error: FT_Write returned: io error
Error: couldn't write MPSSE commands to FT2232
Polling target cc3200.cpu failed, GDB will be halted. Polling again in 6300ms
Error: FT_Write returned: io error
Error: couldn't write MPSSE commands to FT2232
Polling target cc3200.cpu failed, GDB will be halted. Polling again in 6300ms
Error: FT_Write returned: io error
Error: couldn't write MPSSE commands to FT2232
Polling target cc3200.cpu failed, GDB will be halted. Polling again in 6300ms
Error: FT_Write returned: io error
Error: couldn't write MPSSE commands to FT2232
Polling target cc3200.cpu failed, GDB will be halted. Polling again in 6300ms
Error: FT_Write returned: io error
Error: couldn't write MPSSE commands to FT2232
Polling target cc3200.cpu failed, GDB will be halted. Polling again in 6300ms
Error: FT_Write returned: io error
Error: couldn't write MPSSE commands to FT2232
Polling target cc3200.cpu failed, GDB will be halted. Polling again in 6300ms
Error: FT_Write returned: io error
Error: couldn't write MPSSE commands to FT2232
Polling target cc3200.cpu failed, GDB will be halted. Polling again in 6300ms
Error: FT_Write returned: io error
Error: couldn't write MPSSE commands to FT2232
Polling target cc3200.cpu failed, GDB will be halted. Polling again in 6300ms
Error: FT_Write returned: io error
Error: couldn't write MPSSE commands to FT2232
Polling target cc3200.cpu failed, GDB will be halted. Polling again in 6300ms
Error: FT_Write returned: io error
Error: couldn't write MPSSE commands to FT2232
Polling target cc3200.cpu failed, GDB will be halted. Polling again in 6300ms
Error: FT_Write returned: io error
Error: couldn't write MPSSE commands to FT2232
Polling target cc3200.cpu failed, GDB will be halted. Polling again in 6300ms
Error: FT_Write returned: io error
Error: couldn't write MPSSE commands to FT2232
Polling target cc3200.cpu failed, GDB will be halted. Polling again in 6300ms
Error: FT_Write returned: io error
Error: couldn't write MPSSE commands to FT2232
Polling target cc3200.cpu failed, GDB will be halted. Polling again in 6300ms
Error: FT_Write returned: io error
Error: couldn't write MPSSE commands to FT2232
Polling target cc3200.cpu failed, GDB will be halted. Polling again in 6300ms
Error: FT_Write returned: io error
Error: couldn't write MPSSE commands to FT2232
Polling target cc3200.cpu failed, GDB will be halted. Polling again in 6300ms
Error: FT_Write returned: io error
Error: couldn't write MPSSE commands to FT2232
Polling target cc3200.cpu failed, GDB will be halted. Polling again in 6300ms
Error: FT_Write returned: io error
Error: couldn't write MPSSE commands to FT2232
Polling target cc3200.cpu failed, GDB will be halted. Polling again in 6300ms
Error: FT_Write returned: io error
Error: couldn't write MPSSE commands to FT2232
Polling target cc3200.cpu failed, GDB will be halted. Polling again in 6300ms
Error: FT_Write returned: io error
Error: couldn't write MPSSE commands to FT2232
Polling target cc3200.cpu failed, GDB will be halted. Polling again in 6300ms
Error: FT_Write returned: io error
Error: couldn't write MPSSE commands to FT2232
Polling target cc3200.cpu failed, GDB will be halted. Polling again in 6300ms
Error: FT_Write returned: io error
Error: couldn't write MPSSE commands to FT2232
Polling target cc3200.cpu failed, GDB will be halted. Polling again in 6300ms
Error: FT_Write returned: io error
Error: couldn't write MPSSE commands to FT2232
Polling target cc3200.cpu failed, GDB will be halted. Polling again in 6300ms
Error: FT_Write returned: io error
Error: couldn't write MPSSE commands to FT2232
Polling target cc3200.cpu failed, GDB will be halted. Polling again in 6300ms
Error: FT_Write returned: io error
Error: couldn't write MPSSE commands to FT2232
Polling target cc3200.cpu failed, GDB will be halted. Polling again in 6300ms
Error: FT_Write returned: io error
Error: couldn't write MPSSE commands to FT2232
Polling target cc3200.cpu failed, GDB will be halted. Polling again in 6300ms
Error: FT_Write returned: io error
Error: couldn't write MPSSE commands to FT2232
Polling target cc3200.cpu failed, GDB will be halted. Polling again in 6300ms
Error: FT_Write returned: io error
Error: couldn't write MPSSE commands to FT2232
Polling target cc3200.cpu failed, GDB will be halted. Polling again in 6300ms
Error: FT_Write returned: io error
Error: couldn't write MPSSE commands to FT2232
Polling target cc3200.cpu failed, GDB will be halted. Polling again in 6300ms
Error: FT_Write returned: io error
Error: couldn't write MPSSE commands to FT2232
Polling target cc3200.cpu failed, GDB will be halted. Polling again in 6300ms
Error: FT_Write returned: io error
Error: couldn't write MPSSE commands to FT2232
Polling target cc3200.cpu failed, GDB will be halted. Polling again in 6300ms
Error: FT_Write returned: io error
Error: couldn't write MPSSE commands to FT2232
Polling target cc3200.cpu failed, GDB will be halted. Polling again in 6300ms
Error: FT_Write returned: io error
Error: couldn't write MPSSE commands to FT2232
Polling target cc3200.cpu failed, GDB will be halted. Polling again in 6300ms
Error: FT_Write returned: io error
Error: couldn't write MPSSE commands to FT2232
Polling target cc3200.cpu failed, GDB will be halted. Polling again in 6300ms
Error: FT_Write returned: io error
Error: couldn't write MPSSE commands to FT2232
Polling target cc3200.cpu failed, GDB will be halted. Polling again in 6300ms
Error: FT_Write returned: io error
Error: couldn't write MPSSE commands to FT2232
Polling target cc3200.cpu failed, GDB will be halted. Polling again in 6300ms
Error: FT_Write returned: io error
Error: couldn't write MPSSE commands to FT2232
Polling target cc3200.cpu failed, GDB will be halted. Polling again in 6300ms
Error: FT_Write returned: io error
Error: couldn't write MPSSE commands to FT2232
Polling target cc3200.cpu failed, GDB will be halted. Polling again in 6300ms
Error: FT_Write returned: io error
Error: couldn't write MPSSE commands to FT2232
Polling target cc3200.cpu failed, GDB will be halted. Polling again in 6300ms
Error: FT_Write returned: io error
Error: couldn't write MPSSE commands to FT2232
Polling target cc3200.cpu failed, GDB will be halted. Polling again in 6300ms
Error: FT_Write returned: io error
Error: couldn't write MPSSE commands to FT2232
Polling target cc3200.cpu failed, GDB will be halted. Polling again in 6300ms
Error: FT_Write returned: io error
Error: couldn't write MPSSE commands to FT2232
Polling target cc3200.cpu failed, GDB will be halted. Polling again in 6300ms
Error: FT_Write returned: io error
Error: couldn't write MPSSE commands to FT2232
Polling target cc3200.cpu failed, GDB will be halted. Polling again in 6300ms
Error: FT_Write returned: io error
Error: couldn't write MPSSE commands to FT2232
Polling target cc3200.cpu failed, GDB will be halted. Polling again in 6300ms
Error: FT_Write returned: io error
Error: couldn't write MPSSE commands to FT2232
Polling target cc3200.cpu failed, GDB will be halted. Polling again in 6300ms
Error: FT_Write returned: io error
Error: couldn't write MPSSE commands to FT2232
Polling target cc3200.cpu failed, GDB will be halted. Polling again in 6300ms
Error: FT_Write returned: io error
Error: couldn't write MPSSE commands to FT2232
Polling target cc3200.cpu failed, GDB will be halted. Polling again in 6300ms
Error: FT_Write returned: io error
Error: couldn't write MPSSE commands to FT2232
Polling target cc3200.cpu failed, GDB will be halted. Polling again in 6300ms
Error: FT_Write returned: io error
Error: couldn't write MPSSE commands to FT2232
Polling target cc3200.cpu failed, GDB will be halted. Polling again in 6300ms
Error: FT_Write returned: io error
Error: couldn't write MPSSE commands to FT2232
Polling target cc3200.cpu failed, GDB will be halted. Polling again in 6300ms
Error: FT_Write returned: io error
Error: couldn't write MPSSE commands to FT2232
Polling target cc3200.cpu failed, GDB will be halted. Polling again in 6300ms
Error: FT_Write returned: io error
Error: couldn't write MPSSE commands to FT2232
Polling target cc3200.cpu failed, GDB will be halted. Polling again in 6300ms
Error: FT_Write returned: io error
Error: couldn't write MPSSE commands to FT2232
Polling target cc3200.cpu failed, GDB will be halted. Polling again in 6300ms
Error: FT_Write returned: io error
Error: couldn't write MPSSE commands to FT2232
Polling target cc3200.cpu failed, GDB will be halted. Polling again in 6300ms
Error: FT_Write returned: io error
Error: couldn't write MPSSE commands to FT2232
Polling target cc3200.cpu failed, GDB will be halted. Polling again in 6300ms
Error: FT_Write returned: io error
Error: couldn't write MPSSE commands to FT2232
Polling target cc3200.cpu failed, GDB will be halted. Polling again in 6300ms
Error: FT_Write returned: io error
Error: couldn't write MPSSE commands to FT2232
Polling target cc3200.cpu failed, GDB will be halted. Polling again in 6300ms
Error: FT_Write returned: io error
Error: couldn't write MPSSE commands to FT2232
Polling target cc3200.cpu failed, GDB will be halted. Polling again in 6300ms
Error: FT_Write returned: io error
Error: couldn't write MPSSE commands to FT2232
Polling target cc3200.cpu failed, GDB will be halted. Polling again in 6300ms
Error: FT_Write returned: io error
Error: couldn't write MPSSE commands to FT2232
Polling target cc3200.cpu failed, GDB will be halted. Polling again in 6300ms
Error: FT_Write returned: io error
Error: couldn't write MPSSE commands to FT2232
Polling target cc3200.cpu failed, GDB will be halted. Polling again in 6300ms
Error: FT_Write returned: io error
Error: couldn't write MPSSE commands to FT2232
Polling target cc3200.cpu failed, GDB will be halted. Polling again in 6300ms
Error: FT_Write returned: io error
Error: couldn't write MPSSE commands to FT2232
Polling target cc3200.cpu failed, GDB will be halted. Polling again in 6300ms
Error: FT_Write returned: io error
Error: couldn't write MPSSE commands to FT2232
Polling target cc3200.cpu failed, GDB will be halted. Polling again in 6300ms
Error: FT_Write returned: io error
Error: couldn't write MPSSE commands to FT2232
Polling target cc3200.cpu failed, GDB will be halted. Polling again in 6300ms
Error: FT_Write returned: io error
Error: couldn't write MPSSE commands to FT2232
Polling target cc3200.cpu failed, GDB will be halted. Polling again in 6300ms
Error: FT_Write returned: io error
Error: couldn't write MPSSE commands to FT2232
Polling target cc3200.cpu failed, GDB will be halted. Polling again in 6300ms
Error: FT_Write returned: io error
Error: couldn't write MPSSE commands to FT2232
Polling target cc3200.cpu failed, GDB will be halted. Polling again in 6300ms
Info : dropped 'gdb' connection
